10

Ar -0.0 -0.0 0.0
Ar -0.0 0.0 9.781006046462437
Ar -2.175170875281657 -1.1497396020437733 -1.1258120216376373
Ar 2.9279282439739904 -1.0674079967848544 -2.83626807755853
Ar 1.3120162772555537 3.038997085257239 -3.0403949053674006
Ar -0.4573033218806269 -0.7859920635537168 -1.9067490648808354
Ar 0.22662781793763606 1.6140345290421436 3.2062165892885104
Ar -1.7496303426620292 1.3443852697863938 2.075751080369619
Ar -3.08974799730959 3.455926483155408 1.8657494087821072
Ar -1.943829296727823 7.148179002144085 1.8480446906837267
